tests/data/state_estimation/ill-conditioned-system/grid4-with-capacitance/asym_output.json
{
  "version": "1.0",
  "type": "asym_output",
  "is_batch": false,
  "attributes": {},
  "data": {
    "node": [
      {
        "id": 0,
        "energized": 1,
        "u_pu": [
          0.9840615222412396,
          0.9840615222412417,
          0.984061522241241
        ],
        "u": [
          5681.481847651326,
          5681.481847651337,
          5681.481847651334
        ],
        "u_angle": [
          -0.02149188729550814,
          -2.115886989688703,
          2.072903215097687
        ],
        "p": [
          1505387.081561065,
          1505387.081561023,
          1505387.081560875
        ],
        "q": [
          885079.6571233894,
          885079.6571232867,
          885079.6571233479
        ]
      },
      {
        "id": 1,
        "energized": 1,
        "u_pu": [
          0.9816317563290788,
          0.9816317563290816,
          0.9816317563290807
        ],
        "u": [
          5667.453587616787,
          5667.453587616804,
          5667.453587616798
        ],
        "u_angle": [
          -0.02212876185115423,
          -2.116523864244349,
          2.072266340542042
        ],
        "p": [
          -500000.0000000437,
          -499999.9999999935,
          -499999.9999999345
        ],
        "q": [
          -300000.0000000345,
          -299999.9999999183,
          -299999.9999999998
        ]
      },
      {
        "id": 2,
        "energized": 1,
        "u_pu": [
          0.9791739524933838,
          0.9791739524933859,
          0.9791739524933851
        ],
        "u": [
          5653.26345055525,
          5653.263450555261,
          5653.263450555257
        ],
        "u_angle": [
          -0.02275296785751509,
          -2.11714807025071,
          2.071642134535681
        ],
        "p": [
          -1000000,
          -1000000.000000001,
          -999999.999999955
        ],
        "q": [
          -600000.0000000094,
          -600000.0000000168,
          -600000.0000000111
        ]
      }
    ],
    "line": [
      {
        "id": 3,
        "energized": 1,
        "p_from": [
          501099.8415986365,
          501099.8415985854,
          501099.8415985358
        ],
        "q_from": [
          290933.4494611169,
          290933.4494609846,
          290933.4494610818
        ],
        "i_from": [
          101.9863546812542,
          101.9863546812345,
          101.9863546812357
        ],
        "s_from": [
          579433.6228296757,
          579433.6228295651,
          579433.6228295709
        ],
        "p_to": [
          -500000.0000000437,
          -499999.9999999935,
          -499999.9999999345
        ],
        "q_to": [
          -300000.0000000345,
          -299999.9999999183,
          -299999.9999999998
        ],
        "i_to": [
          102.8848636288139,
          102.8848636287954,
          102.8848636287941
        ],
        "s_to": [
          583095.1894845853,
          583095.1894844824,
          583095.1894844738
        ]
      },
      {
        "id": 4,
        "energized": 1,
        "p_from": [
          1004287.239962428,
          1004287.239962418,
          1004287.239962372
        ],
        "q_from": [
          594146.2076622726,
          594146.2076622703,
          594146.207662284
        ],
        "i_from": [
          205.3825580967798,
          205.3825580967776,
          205.382558096772
        ],
        "s_from": [
          1166877.275651048,
          1166877.275651038,
          1166877.275651006
        ],
        "p_to": [
          -1000000,
          -1000000.000000001,
          -999999.999999955
        ],
        "q_to": [
          -600000.0000000094,
          -600000.0000000168,
          -600000.0000000111
        ],
        "i_to": [
          206.2862254994547,
          206.286225499455,
          206.2862254994477
        ],
        "s_to": [
          1166190.378969065,
          1166190.37896907,
          1166190.378969027
        ]
      }
    ],
    "source": [
      {
        "id": 5,
        "energized": 1,
        "p": [
          1505387.081561065,
          1505387.081561023,
          1505387.081560875
        ],
        "q": [
          885079.6571233894,
          885079.6571232866,
          885079.657123348
        ],
        "i": [
          307.3666203361285,
          307.3666203361123,
          307.3666203360957
        ],
        "s": [
          1746297.874013651,
          1746297.874013563,
          1746297.874013467
        ],
        "pf": [
          0.8620448458206719,
          0.8620448458206914,
          0.8620448458206544
        ]
      }
    ],
    "sym_load": [
      {
        "id": 6,
        "energized": 1,
        "p": [
          500000,
          500000,
          500000
        ],
        "q": [
          299999.9999999999,
          299999.9999999999,
          299999.9999999999
        ],
        "i": [
          102.8848636288042,
          102.8848636288039,
          102.8848636288039
        ],
        "s": [
          583095.1894845299,
          583095.1894845299,
          583095.1894845299
        ],
        "pf": [
          0.8574929257125444,
          0.8574929257125444,
          0.8574929257125444
        ]
      },
      {
        "id": 7,
        "energized": 1,
        "p": [
          500000,
          500000,
          500000
        ],
        "q": [
          299999.9999999999,
          299999.9999999999,
          299999.9999999999
        ],
        "i": [
          103.1431127497269,
          103.1431127497266,
          103.1431127497267
        ],
        "s": [
          583095.1894845299,
          583095.1894845299,
          583095.1894845299
        ],
        "pf": [
          0.8574929257125444,
          0.8574929257125444,
          0.8574929257125444
        ]
      },
      {
        "id": 8,
        "energized": 1,
        "p": [
          500000,
          500000,
          500000
        ],
        "q": [
          299999.9999999999,
          299999.9999999999,
          299999.9999999999
        ],
        "i": [
          103.1431127497269,
          103.1431127497266,
          103.1431127497267
        ],
        "s": [
          583095.1894845299,
          583095.1894845299,
          583095.1894845299
        ],
        "pf": [
          0.8574929257125444,
          0.8574929257125444,
          0.8574929257125444
        ]
      }
    ]
  }
}
