tests/data/state_estimation/ill-conditioned-system/grid4-with-capacitance/sym_output.json
{
  "version": "1.0",
  "type": "sym_output",
  "is_batch": false,
  "attributes": {},
  "data": {
    "node": [
      {
        "id": 0,
        "energized": 1,
        "u_pu": 0.9840615222412414,
        "u": 9840.615222412414,
        "u_angle": -0.02149188729550769,
        "p": 4516161.244682975,
        "q": 2655238.971370068
      },
      {
        "id": 1,
        "energized": 1,
        "u_pu": 0.9816317563290811,
        "u": 9816.317563290811,
        "u_angle": -0.02212876185115365,
        "p": -1499999.999999964,
        "q": -899999.9999999987
      },
      {
        "id": 2,
        "energized": 1,
        "u_pu": 0.9791739524933857,
        "u": 9791.739524933857,
        "u_angle": -0.02275296785751467,
        "p": -3000000.000000005,
        "q": -1799999.999999977
      }
    ],
    "line": [
      {
        "id": 3,
        "energized": 1,
        "p_from": 1503299.524795742,
        "q_from": 872800.3483832447,
        "i_from": 101.9863546812424,
        "s_from": 1738300.868488829,
        "p_to": -1499999.999999964,
        "q_to": -899999.9999999987,
        "i_to": 102.8848636288021,
        "s_to": 1749285.568453559
      },
      {
        "id": 4,
        "energized": 1,
        "p_from": 3012861.719887234,
        "q_from": 1782438.622986824,
        "i_from": 205.382558096777,
        "s_from": 3500631.826953104,
        "p_to": -3000000.000000005,
        "q_to": -1799999.999999977,
        "i_to": 206.2862254994529,
        "s_to": 3498571.136907173
      }
    ],
    "source": [
      {
        "id": 5,
        "energized": 1,
        "p": 4516161.244682975,
        "q": 2655238.971370068,
        "i": 307.3666203361138,
        "s": 5238893.622040713,
        "pf": 0.8620448458206694
      }
    ],
    "sym_load": [
      {
        "id": 6,
        "energized": 1,
        "p": 1500000,
        "q": 899999.9999999999,
        "i": 102.8848636288039,
        "s": 1749285.56845359,
        "pf": 0.8574929257125443
      },
      {
        "id": 7,
        "energized": 1,
        "p": 1500000,
        "q": 899999.9999999999,
        "i": 103.1431127497267,
        "s": 1749285.56845359,
        "pf": 0.8574929257125443
      },
      {
        "id": 8,
        "energized": 1,
        "p": 1500000,
        "q": 899999.9999999999,
        "i": 103.1431127497267,
        "s": 1749285.56845359,
        "pf": 0.8574929257125443
      }
    ]
  }
}
